LAMMPS (9 Nov 2011)
# 2d NEMD simulation

units           lj
atom_style      atomic
dimension       2d

lattice         sq2 0.8442
Lattice spacing in x,y,z = 1.53919 1.53919 1.53919
region          box prism 0 10 0 8 -0.5 0.5 0 0 0
create_box      2 box
Created triclinic box = (0 0 -0.769595) to (15.3919 12.3135 0.769595) with tilt (0 0 0)
create_atoms    1 box
Created 160 atoms
mass            * 1.0

velocity        all create 1.44 87287 loop geom

region          slice block 4 6 INF INF INF INF
set             region slice type 2
  40 settings made for type

pair_style      lj/cut 2.5
pair_coeff      * * 1.0 1.0 1.0

neighbor        0.3 bin
neigh_modify    delay 0 every 1

fix             1 all nvt/sllod temp 1.0 1.0 1.0 tchain 1
fix             2 all deform 1 xy erate 0.01 remap v

dump            1 all custom 500 dump.nemd id type x y z

thermo          1000

run             50000
<<<<<<< HEAD
Step Temp E_pair E_mol TotEng Press Volume
0         1.44            0            0        1.431    1.2080502    189.52855
Averages over the last 26 of 51 rows, steps 25000 to 50000:
Temp E_pair E_mol TotEng Press Volume
0.964857 0.255369 0 1.2142 5.96228 189.529
Loop time of 1.30534 on 1 procs for 50000 steps with 160 atoms

Pair  time (%) = 0.209458 (16.0462)
Neigh time (%) = 0.155547 (11.9162)
Comm  time (%) = 0.0605111 (4.63564)
Outpt time (%) = 0.0234551 (1.79686)
Other time (%) = 0.856373 (65.6051)

=======
Step Temp E_pair E_mol TotEng Press Volume
0         1.44            0            0        1.431    1.2080502    189.52855
Averages over the last 26 of 51 rows, steps 25000 to 50000:
Temp E_pair E_mol TotEng Press Volume
0.993736 0.270642 0 1.25817 6.161 189.529
Loop time of 0.716656 on 2 procs for 50000 steps with 160 atoms

Pair  time (%) = 0.0785367 (10.9588)
Neigh time (%) = 0.0613248 (8.55709)
Comm  time (%) = 0.1394 (19.4515)
Outpt time (%) = 0.0153207 (2.1378)
Other time (%) = 0.422073 (58.8949)

>>>>>>> 605367f70cfd4f193235c4e8cb433371382358cc
~
ERROR: Unknown command: ~
 (input.cpp:203)
